Version 4.1
SHEET 1 2008 680
WIRE -416 -48 -416 -64
WIRE 144 -32 144 -48
WIRE 1088 -16 208 -16
WIRE 1152 -16 1088 -16
WIRE 960 16 208 16
WIRE 1024 16 960 16
WIRE 96 48 64 48
WIRE 832 48 208 48
WIRE 896 48 832 48
WIRE 96 80 64 80
WIRE 704 80 208 80
WIRE 768 80 704 80
WIRE -416 96 -416 80
WIRE 96 112 64 112
WIRE 576 112 208 112
WIRE 640 112 576 112
WIRE 464 144 208 144
WIRE 528 144 464 144
WIRE 352 176 208 176
WIRE 416 176 352 176
WIRE 1120 176 1120 160
WIRE 240 208 208 208
WIRE 304 208 240 208
WIRE -416 240 -416 224
FLAG 240 288 0
FLAG 304 272 0
FLAG 352 256 0
FLAG 416 240 0
FLAG 464 224 0
FLAG 528 208 0
FLAG 576 192 0
FLAG 640 176 0
FLAG 704 160 0
FLAG 768 144 0
FLAG 832 128 0
FLAG 896 112 0
FLAG 960 96 0
FLAG 1024 80 0
FLAG 1088 64 0
FLAG 1152 48 0
FLAG 64 48 A
FLAG 64 80 B
FLAG 64 112 C
FLAG 1120 256 0
FLAG 1120 160 VDD
FLAG -416 32 0
FLAG -416 -64 A
FLAG -416 176 0
FLAG -416 320 0
FLAG -416 80 B
FLAG -416 224 C
FLAG 144 -48 VDD
SYMBOL dc_3_8 144 96 R0
SYMATTR InstName X1
SYMBOL res 224 192 R0
SYMATTR InstName R1
SYMATTR Value 100k
SYMBOL cap 288 208 R0
SYMATTR InstName C1
SYMATTR Value 10f
SYMBOL res 336 160 R0
SYMATTR InstName R2
SYMATTR Value 100k
SYMBOL cap 400 176 R0
SYMATTR InstName C2
SYMATTR Value 10f
SYMBOL res 448 128 R0
SYMATTR InstName R3
SYMATTR Value 100k
SYMBOL cap 512 144 R0
SYMATTR InstName C3
SYMATTR Value 10f
SYMBOL res 560 96 R0
SYMATTR InstName R4
SYMATTR Value 100k
SYMBOL cap 624 112 R0
SYMATTR InstName C4
SYMATTR Value 10f
SYMBOL res 688 64 R0
SYMATTR InstName R5
SYMATTR Value 100k
SYMBOL cap 752 80 R0
SYMATTR InstName C5
SYMATTR Value 10f
SYMBOL res 816 32 R0
SYMATTR InstName R6
SYMATTR Value 100k
SYMBOL cap 880 48 R0
SYMATTR InstName C6
SYMATTR Value 10f
SYMBOL res 944 0 R0
SYMATTR InstName R7
SYMATTR Value 100k
SYMBOL cap 1008 16 R0
SYMATTR InstName C7
SYMATTR Value 10f
SYMBOL res 1072 -32 R0
SYMATTR InstName R8
SYMATTR Value 100k
SYMBOL cap 1136 -16 R0
SYMATTR InstName C8
SYMATTR Value 10f
SYMBOL voltage 1120 160 R0
WINDOW 123 0 0 Left 0
WINDOW 39 0 0 Left 0
SYMATTR InstName V1
SYMATTR Value 1
SYMBOL voltage -416 -64 R0
WINDOW 123 0 0 Left 0
WINDOW 39 0 0 Left 0
SYMATTR InstName V2
SYMATTR Value PULSE(0 1 1n 10p 10p 2n 4n)
SYMBOL voltage -416 80 R0
WINDOW 123 0 0 Left 0
WINDOW 39 0 0 Left 0
SYMATTR InstName V3
SYMATTR Value PULSE(0 1 1n 10p 10p 4n 8n)
SYMBOL voltage -416 224 R0
WINDOW 123 0 0 Left 0
WINDOW 39 0 0 Left 0
SYMATTR InstName V4
SYMATTR Value PULSE(0 1 1n 10p 10p 8n 16n)
TEXT -344 -104 Left 2 !.tran 0 32n 0 1p
TEXT 256 -176 Left 2 ;t_01
TEXT 992 -192 Left 2 ;t_10
TEXT 992 -152 Left 2 !.meas tran t_in_r  WHEN V(A)={0.2}   RISE=1 TD=14n\n.meas tran t_out_f WHEN V(n001)={0.1} FALL=1 TD=14n\n.meas tran t_10    PARAM='t_out_f - t_in_r'\n.meas tran f_10    PARAM='1 / t_10'
TEXT 256 -144 Left 2 !.meas tran t_in_f  WHEN V(A)={0.8}  FALL=1 TD=14ns\n.meas tran t_out_r WHEN V(N001)={0.9} RISE=1 TD=14ns\n.meas tran t_01    PARAM='t_out_r - t_in_f'\n.meas tran f_01    PARAM='1 / t_01'
