Version 4.1
SHEET 1 880 680
WIRE 176 144 176 128
WIRE 128 176 -64 176
WIRE 368 176 256 176
WIRE 480 176 368 176
WIRE 48 352 48 336
FLAG -64 256 0
FLAG 48 432 0
FLAG 368 256 0
FLAG 480 240 0
FLAG 48 336 VDD
FLAG 176 128 VDD
SYMBOL inverter_nand2 192 176 R0
SYMATTR InstName X1
SYMBOL voltage -64 160 R0
WINDOW 123 0 0 Left 0
WINDOW 39 0 0 Left 0
SYMATTR InstName V1
SYMATTR Value PULSE(0 1 1n 10p 10p 2n 4n)
SYMBOL voltage 48 336 R0
WINDOW 3 24 44 Left 2
WINDOW 123 0 0 Left 0
WINDOW 39 0 0 Left 0
SYMATTR Value 1
SYMATTR InstName V2
SYMBOL res 352 160 R0
SYMATTR InstName R1
SYMATTR Value 100k
SYMBOL cap 464 176 R0
SYMATTR InstName C1
SYMATTR Value 10f
TEXT 232 120 Left 2 !.tran 0 16n 0 1p
