Version 4.1
SHEET 1 880 680
WIRE -16 -16 -32 -16
WIRE -16 96 -32 96
WIRE 432 128 432 80
WIRE 384 144 368 144
WIRE 384 176 368 176
WIRE 560 192 496 192
WIRE 640 192 560 192
WIRE -16 208 -32 208
WIRE 384 208 368 208
WIRE -16 336 -32 336
FLAG 560 272 0
FLAG 640 256 0
FLAG -16 288 0
FLAG -16 176 0
FLAG -16 64 0
FLAG -16 416 0
FLAG 368 144 A
FLAG -32 -16 A
FLAG 368 176 B
FLAG -32 96 B
FLAG 368 208 C
FLAG -32 208 C
FLAG -32 336 VDD
FLAG 432 80 VDD
SYMBOL nand3 432 192 R0
SYMATTR InstName X1
SYMBOL res 544 176 R0
SYMATTR InstName R1
SYMATTR Value 100k
SYMBOL cap 624 192 R0
SYMATTR InstName C1
SYMATTR Value 10f
SYMBOL voltage -16 192 R0
WINDOW 123 0 0 Left 0
WINDOW 39 0 0 Left 0
SYMATTR InstName V3
SYMATTR Value PULSE(0 1 1n 10p 10p 8n 16n)
SYMBOL voltage -16 320 R0
WINDOW 123 0 0 Left 0
WINDOW 39 0 0 Left 0
SYMATTR InstName V4
SYMATTR Value 1
SYMBOL voltage -16 80 R0
WINDOW 123 0 0 Left 0
WINDOW 39 0 0 Left 0
SYMATTR InstName V1
SYMATTR Value PULSE(0 1 1n 10p 10p 4n 8n)
SYMBOL voltage -16 -32 R0
WINDOW 123 0 0 Left 0
WINDOW 39 0 0 Left 0
SYMATTR InstName V2
SYMATTR Value PULSE(0 1 1n 10p 10p 2n 4n)
TEXT 520 80 Left 2 !.tran 0 32n 0 1p
