Version 4.1
SHEET 1 1328 680
WIRE 96 -176 -544 -176
WIRE -32 -160 -448 -160
WIRE 96 -160 96 -176
WIRE -448 -144 -448 -160
WIRE -32 -128 -32 -160
WIRE 48 -128 -32 -128
WIRE 272 -96 176 -96
WIRE 368 -96 272 -96
WIRE -544 -80 -544 -176
WIRE 48 -64 -32 -64
WIRE -32 -16 -32 -64
WIRE -32 -16 -448 -16
WIRE -448 0 -448 -16
FLAG -544 0 0
FLAG -448 80 0
FLAG -448 -64 0
FLAG 272 -16 0
FLAG 368 -32 0
SYMBOL voltage -544 -96 R0
SYMATTR InstName V3
SYMATTR Value 1
SYMBOL voltage -448 -160 R0
WINDOW 123 0 0 Left 0
WINDOW 39 0 0 Left 0
SYMATTR InstName V2
SYMATTR Value PULSE(0 1 1n 10p 10p 2n 4n)
SYMBOL voltage -448 -16 R0
WINDOW 123 0 0 Left 0
WINDOW 39 0 0 Left 0
SYMATTR InstName V1
SYMATTR Value PULSE(0 1 1n 10p 10p 4n 8n)
SYMBOL nand2 96 -96 R0
SYMATTR InstName X1
SYMATTR SpiceLine T_SIZE=8
SYMBOL res 256 -112 R0
SYMATTR InstName R1
SYMATTR Value 100k
SYMBOL cap 352 -96 R0
SYMATTR InstName C1
SYMATTR Value 10f
TEXT 160 -184 Left 2 !.tran 0 16n 0 1p
TEXT -40 24 Left 2 !.meas tran t_in_r  WHEN V(n002)={0.2}   RISE=1 \n.meas tran t_out_f WHEN V(n003)={0.1} FALL=1 \n.meas tran t_10    PARAM='t_out_f - t_in_r'\n.meas tran f_10    PARAM='1 / t_10'
TEXT -40 160 Left 2 !.meas tran t_in_f  WHEN V(n002)={0.8}  FALL=1\n.meas tran t_out_r WHEN V(n003)={0.9} RISE=1\n.meas tran t_01    PARAM='t_out_r - t_in_f'\n.meas tran f_01    PARAM='1 / t_01'
